# generated using pymatgen
data_Fe2O3
_symmetry_space_group_name_H-M   'P 1'
_cell_length_a   5.09190205
_cell_length_b   5.09190205
_cell_length_c   13.77429765
_cell_angle_alpha   90.00000000
_cell_angle_beta   90.00000000
_cell_angle_gamma   120.00000000
_symmetry_Int_Tables_number   1
_chemical_formula_structural   Fe2O3
_chemical_formula_sum   'Fe12 O18'
_cell_volume   309.28593927
_cell_formula_units_Z   6
loop_
 _symmetry_equiv_pos_site_id
 _symmetry_equiv_pos_as_xyz
  1  'x, y, z'
loop_
 _atom_type_symbol
 _atom_type_oxidation_number
  Fe3+  3.0
  O2-  -2.0
loop_
 _atom_site_type_symbol
 _atom_site_label
 _atom_site_symmetry_multiplicity
 _atom_site_fract_x
 _atom_site_fract_y
 _atom_site_fract_z
 _atom_site_occupancy
  Fe3+  Fe0  1  0.33333333  0.66666667  0.52148950  1
  Fe3+  Fe1  1  0.00000000  0.00000000  0.64517717  1
  Fe3+  Fe2  1  0.33333333  0.66666667  0.81184384  1
  Fe3+  Fe3  1  0.66666667  0.33333333  0.68815616  1
  Fe3+  Fe4  1  0.00000000  0.00000000  0.85482283  1
  Fe3+  Fe5  1  0.66666667  0.33333333  0.97851050  1
  Fe3+  Fe6  1  0.00000000  0.00000000  0.14517717  1
  Fe3+  Fe7  1  0.33333333  0.66666667  0.02148950  1
  Fe3+  Fe8  1  0.66666667  0.33333333  0.18815616  1
  Fe3+  Fe9  1  0.33333333  0.66666667  0.31184384  1
  Fe3+  Fe10  1  0.66666667  0.33333333  0.47851050  1
  Fe3+  Fe11  1  0.00000000  0.00000000  0.35482283  1
  O2-  O12  1  0.69459909  0.69459909  0.75000000  1
  O2-  O13  1  0.30540091  0.00000000  0.75000000  1
  O2-  O14  1  0.66666667  0.02793243  0.58333333  1
  O2-  O15  1  0.36126576  0.33333333  0.58333333  1
  O2-  O16  1  0.97206757  0.63873424  0.58333333  1
  O2-  O17  1  0.00000000  0.30540091  0.75000000  1
  O2-  O18  1  0.36126576  0.02793243  0.08333333  1
  O2-  O19  1  0.97206757  0.33333333  0.08333333  1
  O2-  O20  1  0.33333333  0.36126576  0.91666667  1
  O2-  O21  1  0.02793243  0.66666667  0.91666667  1
  O2-  O22  1  0.63873424  0.97206757  0.91666667  1
  O2-  O23  1  0.66666667  0.63873424  0.08333333  1
  O2-  O24  1  0.02793243  0.36126576  0.41666667  1
  O2-  O25  1  0.63873424  0.66666667  0.41666667  1
  O2-  O26  1  0.00000000  0.69459909  0.25000000  1
  O2-  O27  1  0.69459909  0.00000000  0.25000000  1
  O2-  O28  1  0.30540091  0.30540090  0.25000000  1
  O2-  O29  1  0.33333333  0.97206757  0.41666667  1
